@<TRIPOS>MOLECULE
*****
 12 11 0 0 0
SMALL
GASTEIGER

@<TRIPOS>ATOM
      1 C           1.0127    0.0300   -0.0945 C.3     1  LIG1        0.0963
      2 N           0.5455    1.1104   -0.9856 N.3     1  LIG1       -0.3202
      3 P           2.8427    0.0300   -0.0945 P.3     1  LIG1        0.3412
      4 O           2.8924    1.4882    0.3823 O.2     1  LIG1       -0.2575
      5 O           2.8842   -0.8502    1.2838 O.3     1  LIG1       -0.3232
      6 O           4.5727    0.0300   -0.0945 O.3     1  LIG1       -0.3232
      7 H           0.6496   -0.9357   -0.4573 H       1  LIG1        0.0547
      8 H           0.6148    0.1992    0.9114 H       1  LIG1        0.0547
      9 H           0.9222    0.9802   -1.9231 H       1  LIG1        0.1188
     10 H           0.9865    1.9729   -0.6393 H       1  LIG1        0.1188
     11 H           3.0400   -0.2724    2.0552 H       1  LIG1        0.2198
     12 H           4.8260    0.8158    0.4307 H       1  LIG1        0.2198
@<TRIPOS>BOND
     1     1     2    1
     2     1     3    1
     3     3     4    2
     4     3     5    1
     5     3     6    1
     6     1     7    1
     7     1     8    1
     8     2     9    1
     9     2    10    1
    10     5    11    1
    11     6    12    1
