@<TRIPOS>MOLECULE
*****
 8 8 0 0 0
SMALL
GASTEIGER

@<TRIPOS>ATOM
      1 C          -0.0587    0.8718    0.0660 C.3     1  LIG1        0.0085
      2 C          -0.7759   -0.4419   -0.0698 C.3     1  LIG1        0.0085
      3 N           0.6765   -0.3881    0.0552 N.3     1  LIG1       -0.3136
      4 H          -0.1039    1.3846    1.0185 H       1  LIG1        0.0436
      5 H           0.0403    1.5037   -0.8071 H       1  LIG1        0.0436
      6 H          -1.1715   -0.7236   -1.0370 H       1  LIG1        0.0436
      7 H          -1.3128   -0.8224    0.7900 H       1  LIG1        0.0436
      8 H           1.1279   -0.5410   -0.8485 H       1  LIG1        0.1220
@<TRIPOS>BOND
     1     1     2    1
     2     2     3    1
     3     1     3    1
     4     1     4    1
     5     1     5    1
     6     2     6    1
     7     2     7    1
     8     3     8    1
