@<TRIPOS>MOLECULE
*****
 95 98 0 0 0
SMALL
GASTEIGER

@<TRIPOS>ATOM
      1 C           0.5506   -0.5211    0.9052 C.3     1  LIG1        0.0370
      2 O           0.9932   -1.7405    0.3298 O.3     1  LIG1       -0.3745
      3 C           2.1615   -2.3278    0.9275 C.3     1  LIG1        0.1150
      4 C           2.3811   -3.6979    0.2516 C.3     1  LIG1        0.1133
      5 C           1.1833   -4.6370    0.4148 C.3     1  LIG1        0.0730
      6 O           1.4874   -5.8939   -0.2062 O.3     1  LIG1       -0.3924
      7 O           2.6013   -3.5392   -1.1719 O.3     1  LIG1       -0.3405
      8 C           3.7531   -2.7525   -1.4739 C.3     1  LIG1        0.1880
      9 O           4.9430   -3.4334   -1.0368 O.3     1  LIG1       -0.3460
     10 C           5.1130   -4.6598   -1.7554 C.3     1  LIG1        0.0796
     11 C           6.3958   -5.3544   -1.2917 C.3     1  LIG1        0.1137
     12 O           6.6028   -6.6203   -1.9357 O.3     1  LIG1       -0.3405
     13 C           6.9748   -6.5365   -3.3163 C.3     1  LIG1        0.1884
     14 O           7.0217   -7.8617   -3.8354 O.3     1  LIG1       -0.3401
     15 C           7.3453   -8.0006   -5.2294 C.3     1  LIG1        0.1182
     16 C           7.3176   -9.5015   -5.6023 C.3     1  LIG1        0.1107
     17 C           8.3230  -10.3131   -4.7683 C.3     1  LIG1        0.0729
     18 O           9.6426   -9.8862   -5.0556 O.3     1  LIG1       -0.3924
     19 O           6.0029  -10.0551   -5.4127 O.3     1  LIG1       -0.3661
     20 C           4.9786   -9.4285   -6.1939 C.3     1  LIG1        0.0848
     21 C           5.0374   -9.9105   -7.6431 C.3     1  LIG1       -0.0361
     22 C           4.9534   -7.8981   -6.0141 C.3     1  LIG1        0.1093
     23 O           4.0632   -7.2563   -6.9296 O.3     1  LIG1       -0.3866
     24 C           6.3471   -7.2639   -6.1399 C.3     1  LIG1        0.1121
     25 O           6.7560   -7.2709   -7.5164 O.3     1  LIG1       -0.3865
     26 C           8.3090   -5.7807   -3.4619 C.3     1  LIG1        0.1341
     27 O           9.3971   -6.4855   -2.8405 O.3     1  LIG1       -0.3841
     28 C           8.1633   -4.3940   -2.8299 C.3     1  LIG1        0.1144
     29 O           9.4313   -3.7268   -2.8747 O.3     1  LIG1       -0.3864
     30 C           7.6620   -4.4786   -1.3770 C.3     1  LIG1        0.1184
     31 O           8.7369   -5.0446   -0.6043 O.3     1  LIG1       -0.3401
     32 C           8.5181   -5.1983    0.7970 C.3     1  LIG1        0.1884
     33 O           9.7120   -5.7764    1.3377 O.3     1  LIG1       -0.3405
     34 C          10.8217   -4.8712    1.2997 C.3     1  LIG1        0.1133
     35 C          12.1007   -5.6821    1.5118 C.3     1  LIG1        0.0730
     36 O          13.2489   -4.8470    1.5686 O.3     1  LIG1       -0.3924
     37 C          10.5373   -3.6856    2.2578 C.3     1  LIG1        0.1150
     38 O          10.1009   -4.0868    3.5759 O.3     1  LIG1       -0.3745
     39 C          11.0536   -4.7596    4.3801 C.3     1  LIG1        0.0370
     40 C           9.3275   -2.9427    1.6264 C.3     1  LIG1        0.1143
     41 O           8.9569   -1.7804    2.3845 O.3     1  LIG1       -0.3864
     42 C           8.1170   -3.8905    1.5276 C.3     1  LIG1        0.1341
     43 O           7.5884   -4.1599    2.8390 O.3     1  LIG1       -0.3841
     44 C           3.6712   -1.3500   -0.8379 C.3     1  LIG1        0.1341
     45 O           4.8568   -0.5864   -1.0858 O.3     1  LIG1       -0.3841
     46 C           3.4086   -1.4553    0.6691 C.3     1  LIG1        0.1143
     47 O           4.5622   -1.9552    1.3592 O.3     1  LIG1       -0.3864
     48 H           0.2938    0.1566    0.0854 H       1  LIG1        0.0524
     49 H           1.2955   -0.0361    1.5391 H       1  LIG1        0.0524
     50 H          -0.3497   -0.7084    1.4947 H       1  LIG1        0.0524
     51 H           1.9966   -2.4749    2.0014 H       1  LIG1        0.0649
     52 H           3.2577   -4.2055    0.6759 H       1  LIG1        0.0647
     53 H           0.2849   -4.2469   -0.0718 H       1  LIG1        0.0584
     54 H           0.9698   -4.8255    1.4700 H       1  LIG1        0.0584
     55 H           1.7006   -5.6742   -1.1269 H       1  LIG1        0.2095
     56 H           3.8131   -2.6260   -2.5610 H       1  LIG1        0.0937
     57 H           5.1164   -4.4633   -2.8303 H       1  LIG1        0.0587
     58 H           4.2729   -5.3332   -1.5447 H       1  LIG1        0.0587
     59 H           6.2085   -5.5963   -0.2426 H       1  LIG1        0.0647
     60 H           6.1759   -6.0006   -3.8313 H       1  LIG1        0.0938
     61 H           8.3603   -7.6280   -5.4081 H       1  LIG1        0.0650
     62 H           7.6070   -9.6143   -6.6503 H       1  LIG1        0.0646
     63 H           8.2360  -11.3742   -5.0252 H       1  LIG1        0.0584
     64 H           8.1213  -10.2216   -3.6953 H       1  LIG1        0.0584
     65 H          10.2406  -10.4530   -4.5035 H       1  LIG1        0.2095
     66 H           4.0291   -9.8107   -5.7961 H       1  LIG1        0.0620
     67 H           5.9361   -9.5678   -8.1613 H       1  LIG1        0.0255
     68 H           4.1653   -9.5700   -8.2093 H       1  LIG1        0.0255
     69 H           5.0607  -11.0052   -7.6733 H       1  LIG1        0.0255
     70 H           4.5784   -7.6880   -5.0033 H       1  LIG1        0.0646
     71 H           4.5666   -7.1714   -7.7653 H       1  LIG1        0.2100
     72 H           6.2697   -6.2035   -5.8821 H       1  LIG1        0.0647
     73 H           7.6340   -6.8420   -7.5704 H       1  LIG1        0.2100
     74 H           8.5954   -5.6673   -4.5118 H       1  LIG1        0.0671
     75 H           9.0708   -6.7829   -1.9616 H       1  LIG1        0.2101
     76 H           7.4619   -3.7966   -3.4231 H       1  LIG1        0.0648
     77 H          10.0732   -4.3986   -2.5582 H       1  LIG1        0.2100
     78 H           7.4961   -3.4552   -1.0295 H       1  LIG1        0.0651
     79 H           7.7575   -5.9644    0.9686 H       1  LIG1        0.0938
     80 H          10.9271   -4.4585    0.2854 H       1  LIG1        0.0647
     81 H          12.2299   -6.3952    0.6943 H       1  LIG1        0.0584
     82 H          12.0543   -6.3013    2.4169 H       1  LIG1        0.0584
     83 H          13.4761   -4.5967    0.6485 H       1  LIG1        0.2095
     84 H          11.3850   -2.9975    2.3509 H       1  LIG1        0.0649
     85 H          10.6359   -5.7372    4.6412 H       1  LIG1        0.0524
     86 H          11.2077   -4.1942    5.3019 H       1  LIG1        0.0524
     87 H          12.0264   -4.8834    3.9079 H       1  LIG1        0.0524
     88 H           9.5959   -2.5878    0.6254 H       1  LIG1        0.0648
     89 H           8.2982   -2.0734    3.0345 H       1  LIG1        0.2100
     90 H           7.2995   -3.3781    1.0145 H       1  LIG1        0.0671
     91 H           8.3683   -4.3613    3.4115 H       1  LIG1        0.2101
     92 H           2.8343   -0.8097   -1.2989 H       1  LIG1        0.0671
     93 H           5.3503   -0.5394   -0.2355 H       1  LIG1        0.2101
     94 H           3.2682   -0.4458    1.0622 H       1  LIG1        0.0648
     95 H           4.9216   -2.7048    0.8578 H       1  LIG1        0.2100
@<TRIPOS>BOND
     1     1     2    1
     2     2     3    1
     3     3     4    1
     4     4     5    1
     5     5     6    1
     6     4     7    1
     7     7     8    1
     8     8     9    1
     9     9    10    1
    10    10    11    1
    11    11    12    1
    12    12    13    1
    13    13    14    1
    14    14    15    1
    15    15    16    1
    16    16    17    1
    17    17    18    1
    18    16    19    1
    19    19    20    1
    20    20    21    1
    21    20    22    1
    22    22    23    1
    23    22    24    1
    24    15    24    1
    25    24    25    1
    26    13    26    1
    27    26    27    1
    28    26    28    1
    29    28    29    1
    30    28    30    1
    31    11    30    1
    32    30    31    1
    33    31    32    1
    34    32    33    1
    35    33    34    1
    36    34    35    1
    37    35    36    1
    38    34    37    1
    39    37    38    1
    40    38    39    1
    41    37    40    1
    42    40    41    1
    43    40    42    1
    44    32    42    1
    45    42    43    1
    46     8    44    1
    47    44    45    1
    48    44    46    1
    49     3    46    1
    50    46    47    1
    51     1    48    1
    52     1    49    1
    53     1    50    1
    54     3    51    1
    55     4    52    1
    56     5    53    1
    57     5    54    1
    58     6    55    1
    59     8    56    1
    60    10    57    1
    61    10    58    1
    62    11    59    1
    63    13    60    1
    64    15    61    1
    65    16    62    1
    66    17    63    1
    67    17    64    1
    68    18    65    1
    69    20    66    1
    70    21    67    1
    71    21    68    1
    72    21    69    1
    73    22    70    1
    74    23    71    1
    75    24    72    1
    76    25    73    1
    77    26    74    1
    78    27    75    1
    79    28    76    1
    80    29    77    1
    81    30    78    1
    82    32    79    1
    83    34    80    1
    84    35    81    1
    85    35    82    1
    86    36    83    1
    87    37    84    1
    88    39    85    1
    89    39    86    1
    90    39    87    1
    91    40    88    1
    92    41    89    1
    93    42    90    1
    94    43    91    1
    95    44    92    1
    96    45    93    1
    97    46    94    1
    98    47    95    1
