@<TRIPOS>MOLECULE
*****
 5 4 0 0 0
SMALL
GASTEIGER

@<TRIPOS>ATOM
      1 N           1.1427    0.1995    0.0532 N.2     1  LIG1       -0.2409
      2 C           2.3019    0.0498    0.0349 C.1     1  LIG1        0.0843
      3 N           3.4580   -0.0994    0.0539 N.2     1  LIG1       -0.2409
      4 H           0.7471   -0.1894    0.9133 H       1  LIG1        0.1988
      5 H           3.8552    0.2874    0.9123 H       1  LIG1        0.1988
@<TRIPOS>BOND
     1     1     2    2
     2     2     3    2
     3     1     4    1
     4     3     5    1
