@<TRIPOS>MOLECULE
*****
 7 6 0 0 0
SMALL
GASTEIGER

@<TRIPOS>ATOM
      1 O           0.9444    0.0310   -0.1068 O.2     1  LIG1       -0.5149
      2 C           2.3091    0.0296   -0.1064 C.2     1  LIG1        0.0738
      3 C           3.0100    1.1140   -0.4311 C.2     1  LIG1       -0.0645
      4 H           0.6389   -0.8545    0.1583 H       1  LIG1        0.2912
      5 H           2.7570   -0.9142    0.1762 H       1  LIG1        0.1014
      6 H           2.5078    2.0355   -0.7070 H       1  LIG1        0.0565
      7 H           4.0939    1.1031   -0.4278 H       1  LIG1        0.0565
@<TRIPOS>BOND
     1     1     2    1
     2     2     3    2
     3     1     4    1
     4     2     5    1
     5     3     6    1
     6     3     7    1
