@<TRIPOS>MOLECULE
*****
 14 14 0 0 0
SMALL
GASTEIGER

@<TRIPOS>ATOM
      1 S           1.0805   -0.1550    0.1976 S.3     1  LIG1        0.1199
      2 O           0.4467    0.9787   -0.5718 O.2     1  LIG1       -0.1468
      3 O           0.6035   -1.5490   -0.1310 O.2     1  LIG1       -0.1468
      4 C           2.8420   -0.0827   -0.0149 C.ar    1  LIG1        0.1123
      5 C           3.4700    1.1351   -0.2924 C.ar    1  LIG1       -0.0350
      6 C           4.8584    1.1972   -0.4361 C.ar    1  LIG1       -0.0599
      7 C           5.6258    0.0402   -0.3004 C.ar    1  LIG1       -0.0616
      8 C           5.0056   -1.1782   -0.0232 C.ar    1  LIG1       -0.0599
      9 C           3.6171   -1.2383    0.1203 C.ar    1  LIG1       -0.0350
     10 H           2.8680    2.0338   -0.4057 H       1  LIG1        0.0637
     11 H           5.3322    2.1481   -0.6585 H       1  LIG1        0.0618
     12 H           6.7042    0.0869   -0.4162 H       1  LIG1        0.0618
     13 H           5.5946   -2.0844    0.0772 H       1  LIG1        0.0618
     14 H           3.1297   -2.1881    0.3283 H       1  LIG1        0.0637
@<TRIPOS>BOND
     1     1     2    2
     2     1     3    2
     3     1     4    1
     4     4     5   ar
     5     5     6   ar
     6     6     7   ar
     7     7     8   ar
     8     8     9   ar
     9     4     9   ar
    10     5    10    1
    11     6    11    1
    12     7    12    1
    13     8    13    1
    14     9    14    1
