@<TRIPOS>MOLECULE
*****
 15 15 0 0 0
SMALL
GASTEIGER

@<TRIPOS>ATOM
      1 N           3.0219   -1.2498    0.1212 N.am    1  LIG1       -0.3253
      2 C           2.4714   -0.0182   -0.0984 C.2     1  LIG1        0.2416
      3 O           1.5133    0.3656    0.5602 O.2     1  LIG1       -0.2704
      4 C           3.1057    0.8490   -1.1227 C.ar    1  LIG1        0.0393
      5 C           2.8871    2.2244   -1.0411 C.ar    1  LIG1       -0.0315
      6 C           3.4805    3.0353   -1.9894 C.ar    1  LIG1        0.0283
      7 N           4.2526    2.5685   -2.9938 N.ar    1  LIG1       -0.2632
      8 C           4.4299    1.2319   -3.0620 C.ar    1  LIG1        0.0283
      9 C           3.8833    0.3349   -2.1604 C.ar    1  LIG1       -0.0315
     10 H           2.6376   -1.7709    0.8999 H       1  LIG1        0.1453
     11 H           3.9477   -1.5000   -0.1932 H       1  LIG1        0.1453
     12 H           2.2722    2.6521   -0.2557 H       1  LIG1        0.0640
     13 H           3.3471    4.1133   -1.9669 H       1  LIG1        0.0830
     14 H           5.0402    0.8910   -3.8940 H       1  LIG1        0.0830
     15 H           4.0466   -0.7270   -2.2935 H       1  LIG1        0.0640
@<TRIPOS>BOND
     1     1     2   am
     2     2     3    2
     3     2     4    1
     4     4     5   ar
     5     5     6   ar
     6     6     7   ar
     7     7     8   ar
     8     8     9   ar
     9     4     9   ar
    10     1    10    1
    11     1    11    1
    12     5    12    1
    13     6    13    1
    14     8    14    1
    15     9    15    1
