@<TRIPOS>MOLECULE
*****
 4 3 0 0 0
SMALL
GASTEIGER

@<TRIPOS>ATOM
      1 N           0.9633   -0.0355   -0.0063 N.2     1  LIG1       -0.2508
      2 C           2.1340   -0.0699   -0.0168 C.1     1  LIG1        0.0328
      3 S           3.7201   -0.1381   -0.0377 S.2     1  LIG1        0.0201
      4 H           0.5755   -0.9423   -0.2838 H       1  LIG1        0.1979
@<TRIPOS>BOND
     1     1     2    2
     2     2     3    2
     3     1     4    1
