@<TRIPOS>MOLECULE
*****
 32 31 0 0 0
SMALL
GASTEIGER

@<TRIPOS>ATOM
      1 C           4.3374    2.3020    0.3459 C.3     1  LIG1       -0.0549
      2 C           2.8420    2.2073    0.7017 C.3     1  LIG1        0.0227
      3 C           2.7551    2.1496    2.2514 C.3     1  LIG1       -0.0549
      4 C           2.1013    3.5001    0.2922 C.3     1  LIG1        0.0521
      5 O           2.1524    3.7635   -1.1000 O.3     1  LIG1       -0.3944
      6 C           2.2077    0.9130    0.0923 C.3     1  LIG1        0.1380
      7 C           2.3489    0.6417   -1.4417 C.2     1  LIG1        0.2423
      8 O           2.8673   -0.3967   -1.8583 O.2     1  LIG1       -0.2730
      9 N           1.7517    1.5461   -2.2780 N.am    1  LIG1       -0.3126
     10 C           1.8038    1.5026   -3.7297 C.3     1  LIG1        0.0217
     11 C           0.5581    0.8600   -4.3119 C.3     1  LIG1        0.0603
     12 C           0.5789    0.9430   -5.8117 C.2     1  LIG1        0.3062
     13 O           0.0971    1.8723   -6.4605 O.2     1  LIG1       -0.2510
     14 O           1.2066   -0.1018   -6.3952 O.3     1  LIG1       -0.4806
     15 O           2.7588   -0.2279    0.7799 O.3     1  LIG1       -0.3820
     16 H           4.8031    3.1553    0.8543 H       1  LIG1        0.0237
     17 H           4.4992    2.4267   -0.7284 H       1  LIG1        0.0237
     18 H           4.8783    1.4037    0.6650 H       1  LIG1        0.0237
     19 H           3.0913    3.0942    2.6981 H       1  LIG1        0.0237
     20 H           3.3874    1.3594    2.6697 H       1  LIG1        0.0237
     21 H           1.7261    1.9770    2.5858 H       1  LIG1        0.0237
     22 H           2.5190    4.3755    0.8039 H       1  LIG1        0.0563
     23 H           1.0442    3.4389    0.5732 H       1  LIG1        0.0563
     24 H           3.0332    4.1362   -1.2955 H       1  LIG1        0.2094
     25 H           1.1324    0.8977    0.3082 H       1  LIG1        0.0696
     26 H           1.4356    2.4241   -1.8642 H       1  LIG1        0.1488
     27 H           2.7080    0.9772   -4.0593 H       1  LIG1        0.0467
     28 H           1.8881    2.5417   -4.0696 H       1  LIG1        0.0467
     29 H          -0.3454    1.3721   -3.9575 H       1  LIG1        0.0393
     30 H           0.4546   -0.1843   -3.9897 H       1  LIG1        0.0393
     31 H           1.5458   -0.7764   -5.7662 H       1  LIG1        0.2951
     32 H           2.8022   -0.9522    0.1218 H       1  LIG1        0.2105
@<TRIPOS>BOND
     1     1     2    1
     2     2     3    1
     3     2     4    1
     4     4     5    1
     5     2     6    1
     6     6     7    1
     7     7     8    2
     8     7     9   am
     9     9    10    1
    10    10    11    1
    11    11    12    1
    12    12    13    2
    13    12    14    1
    14     6    15    1
    15     1    16    1
    16     1    17    1
    17     1    18    1
    18     3    19    1
    19     3    20    1
    20     3    21    1
    21     4    22    1
    22     4    23    1
    23     5    24    1
    24     6    25    1
    25     9    26    1
    26    10    27    1
    27    10    28    1
    28    11    29    1
    29    11    30    1
    30    14    31    1
    31    15    32    1
