@<TRIPOS>MOLECULE
*****
 19 19 0 0 0
SMALL
GASTEIGER

@<TRIPOS>ATOM
      1 C           2.5398    1.3799    0.0119 C.3     1  LIG1       -0.0350
      2 C           2.5268   -0.1389    0.1433 C.3     1  LIG1        0.0966
      3 C           2.9640   -0.5905    1.5477 C.3     1  LIG1        0.1888
      4 C           2.9955   -2.0666    1.6847 C.2     1  LIG1        0.1862
      5 C           4.1999   -2.5000    2.0325 C.2     1  LIG1        0.2437
      6 C           5.0649   -1.3094    2.1253 C.2     1  LIG1        0.3783
      7 O           6.2499   -1.2901    2.4024 O.2     1  LIG1       -0.2414
      8 O           4.3163   -0.2015    1.8217 O.3     1  LIG1       -0.4450
      9 O           4.5804   -3.7962    2.2237 O.2     1  LIG1       -0.4988
     10 O           1.9057   -2.8605    1.4329 O.2     1  LIG1       -0.5042
     11 O           1.1950   -0.6191   -0.1084 O.3     1  LIG1       -0.3879
     12 H           3.5412    1.7896    0.1732 H       1  LIG1        0.0256
     13 H           1.8509    1.8394    0.7291 H       1  LIG1        0.0256
     14 H           2.2007    1.6805   -0.9854 H       1  LIG1        0.0256
     15 H           3.1903   -0.5655   -0.6188 H       1  LIG1        0.0632
     16 H           2.3090   -0.1606    2.3151 H       1  LIG1        0.0844
     17 H           3.7752   -4.3293    2.0812 H       1  LIG1        0.2925
     18 H           1.2382   -2.2944    0.9814 H       1  LIG1        0.2920
     19 H           0.9282   -0.2716   -0.9808 H       1  LIG1        0.2099
@<TRIPOS>BOND
     1     1     2    1
     2     2     3    1
     3     3     4    1
     4     4     5    2
     5     5     6    1
     6     6     7    2
     7     6     8    1
     8     3     8    1
     9     5     9    1
    10     4    10    1
    11     2    11    1
    12     1    12    1
    13     1    13    1
    14     1    14    1
    15     2    15    1
    16     3    16    1
    17     9    17    1
    18    10    18    1
    19    11    19    1
